!-Generator IDFEditor 1.55
!-Option SortedOrder

!-NOTE: All comments with '!-' are ignored by the IDFEditor and are generated automatically.
!-      Use '!' comments if they need to be retained when using the IDFEditor.


!-   ===========  ALL OBJECTS IN CLASS: VERSION ===========

! ---------------------------------------------------------------------------------------------------------
! The Residential Prototype Building Models were developed by Pacific Northwest National Laboratory (PNNL),
! under contract with the U.S. Department of Energy (DOE).
! The purpose of developing these building prototype models is to measure energy saving impacts from
! various residential energy codes. Detailed model development descriptions are documented in
! PNNL report titled "Cost-Effectiveness Analysis of the 2009 and 2012 IECC Residential Provisions
! - Technical Support Document".
! ---------------------------------------------------------------------------------------------------------
! IDF File:     ./input-main/US+SF+CZ4A+hp+slab+IECC_2024.idf
! Run Case:     US+SF+CZ4A+hp+slab+IECC_2024
! WeatherFile:  USA_NY_New.York-John.F.Kennedy.Intl.AP.744860_TMY3.epw
! BEGIN of res.eplus.tmpl
! GPARM parameters as run:
!    ID = US+SF+CZ4A+hp+slab+IECC_2024
!    weatherfile = USA_NY_New.York-John.F.Kennedy.Intl.AP.744860_TMY3.epw
!    climate_zone = Climate Zone 4
!    moisture_regime = Moist
!    humidity_designation = Not Warm-Humid
!    tropical_designation = Not Tropical
!    bldg_type = Single-Family
!    fndn_type = Slab
!    system_tag = Heat Pump
!    code = IECC_2024
!    permits = 14863.0398370665
!    cfm25 = 4
!    state_abbr = NY
!    iecc2024_ec = yes
!    uef = 3.30
!    re = 4.05
!    afue =
!    seer =
!    seer2 =
!    appliances_credit = yes
!    u_window =
!    shgc_window =
!    dhw_source_fuel =
!    dhw_heater_eff =
!    afn_control = MultizoneWithDistribution
!    dhw_type =
!    webposting = Yes
!    DEBUG_TYPE = no
!    hourly_output = no
!    TEMPLATE_PATH = template/v23.1
!    default_values = regular
Version,
    25.1;                    !- Version Identifier


!-   ===========  ALL OBJECTS IN CLASS: SIMULATIONCONTROL ===========

! END of res.geo.sf.tmpl
! BEGIN of res.mat.consol.tmpl
! END of res.mat.consol.tmpl
SimulationControl,
    Yes,                     !- Do Zone Sizing Calculation
    Yes,                     !- Do System Sizing Calculation
    No,                      !- Do Plant Sizing Calculation
    Yes,                     !- Run Simulation for Sizing Periods
    Yes,                     !- Run Simulation for Weather File Run Periods
    ,                        !- Do HVAC Sizing Simulation for Sizing Periods
    ;                        !- Maximum Number of HVAC Sizing Simulation Passes


!-   ===========  ALL OBJECTS IN CLASS: BUILDING ===========

Building,
    US+SF+CZ4A+hp+slab+IECC_2024,  !- Name
    0,                       !- North Axis {deg}
    Suburbs,                 !- Terrain
    0.04,                    !- Loads Convergence Tolerance Value {W}
    0.4,                     !- Temperature Convergence Tolerance Value {deltaC}
    FullExterior,            !- Solar Distribution
    25,                      !- Maximum Number of Warmup Days
    6;                       !- Minimum Number of Warmup Days


!-   ===========  ALL OBJECTS IN CLASS: SURFACECONVECTIONALGORITHM:INSIDE ===========

SurfaceConvectionAlgorithm:Inside,
    TARP;                    !- Algorithm


!-   ===========  ALL OBJECTS IN CLASS: HEATBALANCEALGORITHM ===========

HeatBalanceAlgorithm,
    ConductionTransferFunction,  !- Algorithm
    200,                     !- Surface Temperature Upper Limit {C}
    0.1,                     !- Minimum Surface Convection Heat Transfer Coefficient Value {W/m2-K}
    1000;                    !- Maximum Surface Convection Heat Transfer Coefficient Value {W/m2-K}


!-   ===========  ALL OBJECTS IN CLASS: TIMESTEP ===========

Timestep,
    6;                       !- Number of Timesteps per Hour


!-   ===========  ALL OBJECTS IN CLASS: SITE:LOCATION ===========

! Location and design-day objects created by:
! Site:Location and design-day objects created by:
! ./modules/doe_bldg_tools/bin/ddy2idf ./tools/epw//USA_NY_New.York-John.F.Kennedy.Intl.AP.744860_TMY3.ddy
!
Site:Location,
    New.York-John.F.Kennedy.Intl.AP_NY_USA WMO=744860,  !- Name
    40.66,                   !- Latitude {deg}
    -73.80,                  !- Longitude {deg}
    -5.00,                   !- Time Zone {hr}
    7.00;                    !- Elevation {m}


!-   ===========  ALL OBJECTS IN CLASS: SIZINGPERIOD:DESIGNDAY ===========

SizingPeriod:DesignDay,
    New.York-John.F.Kennedy.Intl.AP_NY_USA Ann Htg 99.6% Condns DB,  !- Name
    1,                       !- Month
    21,                      !- Day of Month
    WinterDesignDay,         !- Day Type
    -10.7,                   !- Maximum Dry-Bulb Temperature {C}
    0.0,                     !- Daily Dry-Bulb Temperature Range {deltaC}
    DefaultMultipliers,      !- Dry-Bulb Temperature Range Modifier Type
    ,                        !- Dry-Bulb Temperature Range Modifier Day Schedule Name
    Wetbulb,                 !- Humidity Condition Type
    -10.7,                   !- Wetbulb or DewPoint at Maximum Dry-Bulb {C}
    ,                        !- Humidity Condition Day Schedule Name
    ,                        !- Humidity Ratio at Maximum Dry-Bulb {kgWater/kgDryAir}
    ,                        !- Enthalpy at Maximum Dry-Bulb {J/kg}
    ,                        !- Daily Wet-Bulb Temperature Range {deltaC}
    101241.,                 !- Barometric Pressure {Pa}
    7.5,                     !- Wind Speed {m/s}
    320,                     !- Wind Direction {deg}
    No,                      !- Rain Indicator
    No,                      !- Snow Indicator
    No,                      !- Daylight Saving Time Indicator
    ASHRAEClearSky,          !- Solar Model Indicator
    ,                        !- Beam Solar Day Schedule Name
    ,                        !- Diffuse Solar Day Schedule Name
    ,                        !- ASHRAE Clear Sky Optical Depth for Beam Irradiance (taub) {dimensionless}
    ,                        !- ASHRAE Clear Sky Optical Depth for Diffuse Irradiance (taud) {dimensionless}
    0.00;                    !- Sky Clearness

SizingPeriod:DesignDay,
    New.York-John.F.Kennedy.Intl.AP_NY_USA Ann Clg .4% Condns DB=>MWB,  !- Name
    7,                       !- Month
    21,                      !- Day of Month
    SummerDesignDay,         !- Day Type
    32.1,                    !- Maximum Dry-Bulb Temperature {C}
    7.4,                     !- Daily Dry-Bulb Temperature Range {deltaC}
    DefaultMultipliers,      !- Dry-Bulb Temperature Range Modifier Type
    ,                        !- Dry-Bulb Temperature Range Modifier Day Schedule Name
    Wetbulb,                 !- Humidity Condition Type
    23.1,                    !- Wetbulb or DewPoint at Maximum Dry-Bulb {C}
    ,                        !- Humidity Condition Day Schedule Name
    ,                        !- Humidity Ratio at Maximum Dry-Bulb {kgWater/kgDryAir}
    ,                        !- Enthalpy at Maximum Dry-Bulb {J/kg}
    ,                        !- Daily Wet-Bulb Temperature Range {deltaC}
    101241.,                 !- Barometric Pressure {Pa}
    5.6,                     !- Wind Speed {m/s}
    230,                     !- Wind Direction {deg}
    No,                      !- Rain Indicator
    No,                      !- Snow Indicator
    No,                      !- Daylight Saving Time Indicator
    ASHRAETau,               !- Solar Model Indicator
    ,                        !- Beam Solar Day Schedule Name
    ,                        !- Diffuse Solar Day Schedule Name
    0.541,                   !- ASHRAE Clear Sky Optical Depth for Beam Irradiance (taub) {dimensionless}
    1.800;                   !- ASHRAE Clear Sky Optical Depth for Diffuse Irradiance (taud) {dimensionless}


!-   ===========  ALL OBJECTS IN CLASS: RUNPERIOD ===========

RunPeriod,
    annual,                  !- Name
    1,                       !- Begin Month
    1,                       !- Begin Day of Month
    ,                        !- Begin Year
    12,                      !- End Month
    31,                      !- End Day of Month
    ,                        !- End Year
    Sunday,                  !- Day of Week for Start Day
    Yes,                     !- Use Weather File Holidays and Special Days
    Yes,                     !- Use Weather File Daylight Saving Period
    No,                      !- Apply Weekend Holiday Rule
    Yes,                     !- Use Weather File Rain Indicators
    Yes;                     !- Use Weather File Snow Indicators


!-   ===========  ALL OBJECTS IN CLASS: SITE:GROUNDTEMPERATURE:BUILDINGSURFACE ===========

Site:GroundTemperature:BuildingSurface,
    18,                      !- January Ground Temperature {C}
    18,                      !- February Ground Temperature {C}
    18,                      !- March Ground Temperature {C}
    18,                      !- April Ground Temperature {C}
    18,                      !- May Ground Temperature {C}
    18,                      !- June Ground Temperature {C}
    18,                      !- July Ground Temperature {C}
    18,                      !- August Ground Temperature {C}
    18,                      !- September Ground Temperature {C}
    18,                      !- October Ground Temperature {C}
    18,                      !- November Ground Temperature {C}
    18;                      !- December Ground Temperature {C}


!-   ===========  ALL OBJECTS IN CLASS: SITE:WATERMAINSTEMPERATURE ===========

! Water mains temperature object created by:
! ./modules/doe_bldg_tools/bin/stat2idf ./tools/epw//USA_NY_New.York-John.F.Kennedy.Intl.AP.744860_TMY3.stat
!
Site:WaterMainsTemperature,
    Correlation,             !- Calculation Method
    ,                        !- Temperature Schedule Name
    12.4666666666667,        !- Annual Average Outdoor Air Temperature {C}
    25.2;                    !- Maximum Difference In Monthly Average Outdoor Air Temperatures {deltaC}


!-   ===========  ALL OBJECTS IN CLASS: SCHEDULETYPELIMITS ===========

ScheduleTypeLimits,
    any number;              !- Name

ScheduleTypeLimits,
    On/Off,                  !- Name
    0,                       !- Lower Limit Value
    1,                       !- Upper Limit Value
    Discrete;                !- Numeric Type

ScheduleTypeLimits,
    control_type,            !- Name
    0,                       !- Lower Limit Value
    4,                       !- Upper Limit Value
    Discrete;                !- Numeric Type

ScheduleTypeLimits,
    fraction,                !- Name
    0,                       !- Lower Limit Value
    1,                       !- Upper Limit Value
    Continuous;              !- Numeric Type

ScheduleTypeLimits,
    Temperature,             !- Name
    -60,                     !- Lower Limit Value
    200,                     !- Upper Limit Value
    Continuous;              !- Numeric Type


!-   ===========  ALL OBJECTS IN CLASS: SCHEDULE:DAY:HOURLY ===========

!
! *** Occupancy and Lighting factors taken from NREL benchmark model ***
!
Schedule:Day:Hourly,
    OccupancyDay,            !- Name
    Fraction,                !- Schedule Type Limits Name
    1.00000,                 !- Hour 1
    1.00000,                 !- Hour 2
    1.00000,                 !- Hour 3
    1.00000,                 !- Hour 4
    1.00000,                 !- Hour 5
    1.00000,                 !- Hour 6
    1.00000,                 !- Hour 7
    0.88310,                 !- Hour 8
    0.40861,                 !- Hour 9
    0.24189,                 !- Hour 10
    0.24189,                 !- Hour 11
    0.24189,                 !- Hour 12
    0.24189,                 !- Hour 13
    0.24189,                 !- Hour 14
    0.24189,                 !- Hour 15
    0.24189,                 !- Hour 16
    0.29498,                 !- Hour 17
    0.55310,                 !- Hour 18
    0.89693,                 !- Hour 19
    0.89693,                 !- Hour 20
    0.89693,                 !- Hour 21
    1.00000,                 !- Hour 22
    1.00000,                 !- Hour 23
    1.00000;                 !- Hour 24

Schedule:Day:Hourly,
    LightingDay,             !- Name
    Fraction,                !- Schedule Type Limits Name
    0.0625,                  !- Hour 1
    0.0625,                  !- Hour 2
    0.0625,                  !- Hour 3
    0.0625,                  !- Hour 4
    0.1875,                  !- Hour 5
    0.390625,                !- Hour 6
    0.4375,                  !- Hour 7
    0.390625,                !- Hour 8
    0.171875,                !- Hour 9
    0.1171875,               !- Hour 10
    0.1171875,               !- Hour 11
    0.1171875,               !- Hour 12
    0.1171875,               !- Hour 13
    0.1171875,               !- Hour 14
    0.1171875,               !- Hour 15
    0.203125,                !- Hour 16
    0.4375,                  !- Hour 17
    0.609375,                !- Hour 18
    0.8203125,               !- Hour 19
    0.984375,                !- Hour 20
    1,                       !- Hour 21
    0.6875,                  !- Hour 22
    0.3828125,               !- Hour 23
    0.15625;                 !- Hour 24

Schedule:Day:Hourly,
    LightingDay_EELighting_OccSensors,  !- Name
    Fraction,                !- Schedule Type Limits Name
    0.065170403,             !- Hour 1
    0.065170403,             !- Hour 2
    0.065170403,             !- Hour 3
    0.065170403,             !- Hour 4
    0.195511208,             !- Hour 5
    0.407315016,             !- Hour 6
    0.456192818,             !- Hour 7
    0.407315016,             !- Hour 8
    0.179218607,             !- Hour 9
    0.122194505,             !- Hour 10
    0.122194505,             !- Hour 11
    0.122194505,             !- Hour 12
    0.122194505,             !- Hour 13
    0.122194505,             !- Hour 14
    0.122194505,             !- Hour 15
    0.211803808,             !- Hour 16
    0.456192818,             !- Hour 17
    0.635411425,             !- Hour 18
    0.855361533,             !- Hour 19
    0.947933128,             !- Hour 20
    0.947933128,             !- Hour 21
    0.716874428,             !- Hour 22
    0.399168715,             !- Hour 23
    0.162926006;             !- Hour 24

Schedule:Day:Hourly,
    LightingDay_EELighting_Garage_OccSensors,  !- Name
    Fraction,                !- Schedule Type Limits Name
    0.048125,                !- Hour 1
    0.048125,                !- Hour 2
    0.048125,                !- Hour 3
    0.048125,                !- Hour 4
    0.144375,                !- Hour 5
    0.30078125,              !- Hour 6
    0.336875,                !- Hour 7
    0.30078125,              !- Hour 8
    0.13234375,              !- Hour 9
    0.090234375,             !- Hour 10
    0.090234375,             !- Hour 11
    0.090234375,             !- Hour 12
    0.090234375,             !- Hour 13
    0.090234375,             !- Hour 14
    0.090234375,             !- Hour 15
    0.15640625,              !- Hour 16
    0.336875,                !- Hour 17
    0.46921875,              !- Hour 18
    0.631640625,             !- Hour 19
    0.7,                     !- Hour 20
    0.7,                     !- Hour 21
    0.529375,                !- Hour 22
    0.294765625,             !- Hour 23
    0.1203125;               !- Hour 24

Schedule:Day:Hourly,
    ExteriorLightingDay,     !- Name
    Fraction,                !- Schedule Type Limits Name
    1,                       !- Hour 1
    1,                       !- Hour 2
    1,                       !- Hour 3
    1,                       !- Hour 4
    1,                       !- Hour 5
    1,                       !- Hour 6
    0,                       !- Hour 7
    0,                       !- Hour 8
    0,                       !- Hour 9
    0,                       !- Hour 10
    0,                       !- Hour 11
    0,                       !- Hour 12
    0,                       !- Hour 13
    0,                       !- Hour 14
    0,                       !- Hour 15
    0,                       !- Hour 16
    0,                       !- Hour 17
    0,                       !- Hour 18
    1,                       !- Hour 19
    1,                       !- Hour 20
    1,                       !- Hour 21
    1,                       !- Hour 22
    1,                       !- Hour 23
    1;                       !- Hour 24

Schedule:Day:Hourly,
    LightingDay_EELighting,  !- Name
    Fraction,                !- Schedule Type Limits Name
    0.06875,                 !- Hour 1
    0.06875,                 !- Hour 2
    0.06875,                 !- Hour 3
    0.06875,                 !- Hour 4
    0.20625,                 !- Hour 5
    0.4296875,               !- Hour 6
    0.48125,                 !- Hour 7
    0.4296875,               !- Hour 8
    0.1890625,               !- Hour 9
    0.12890625,              !- Hour 10
    0.12890625,              !- Hour 11
    0.12890625,              !- Hour 12
    0.12890625,              !- Hour 13
    0.12890625,              !- Hour 14
    0.12890625,              !- Hour 15
    0.2234375,               !- Hour 16
    0.48125,                 !- Hour 17
    0.6703125,               !- Hour 18
    0.90234375,              !- Hour 19
    1,                       !- Hour 20
    1,                       !- Hour 21
    0.75625,                 !- Hour 22
    0.42109375,              !- Hour 23
    0.171875;                !- Hour 24

Schedule:Day:Hourly,
    RefrigeratorDay,         !- Name
    Fraction,                !- Schedule Type Limits Name
    0.8,                     !- Hour 1
    0.782696177062374,       !- Hour 2
    0.765593561368209,       !- Hour 3
    0.742857142857143,       !- Hour 4
    0.731388329979879,       !- Hour 5
    0.731388329979879,       !- Hour 6
    0.759959758551308,       !- Hour 7
    0.8,                     !- Hour 8
    0.817102615694165,       !- Hour 9
    0.828571428571429,       !- Hour 10
    0.8,                     !- Hour 11
    0.8,                     !- Hour 12
    0.839839034205231,       !- Hour 13
    0.839839034205231,       !- Hour 14
    0.828571428571429,       !- Hour 15
    0.839839034205231,       !- Hour 16
    0.885714285714286,       !- Hour 17
    0.971428571428572,       !- Hour 18
    1,                       !- Hour 19
    0.971428571428572,       !- Hour 20
    0.942857142857143,       !- Hour 21
    0.925553319919517,       !- Hour 22
    0.885714285714286,       !- Hour 23
    0.828571428571429;       !- Hour 24

Schedule:Day:Hourly,
    MiscPlugLoadDay,         !- Name
    Fraction,                !- Schedule Type Limits Name
    0.607490272373541,       !- Hour 1
    0.559338521400778,       !- Hour 2
    0.552853437094682,       !- Hour 3
    0.545071335927367,       !- Hour 4
    0.524481193255512,       !- Hour 5
    0.585278858625162,       !- Hour 6
    0.676232166018158,       !- Hour 7
    0.718547341115435,       !- Hour 8
    0.607490272373541,       !- Hour 9
    0.517023346303502,       !- Hour 10
    0.529182879377432,       !- Hour 11
    0.529345006485084,       !- Hour 12
    0.520428015564202,       !- Hour 13
    0.538424124513619,       !- Hour 14
    0.568741893644617,       !- Hour 15
    0.600356679636835,       !- Hour 16
    0.71011673151751,        !- Hour 17
    0.862678339818418,       !- Hour 18
    0.936608300907912,       !- Hour 19
    0.966763942931258,       !- Hour 20
    1,                       !- Hour 21
    0.976653696498055,       !- Hour 22
    0.845168612191959,       !- Hour 23
    0.73443579766537;        !- Hour 24

Schedule:Day:Hourly,
    CookingRangeDay,         !- Name
    Fraction,                !- Schedule Type Limits Name
    0.04715848452508,        !- Hour 1
    0.04715848452508,        !- Hour 2
    0.0235458911419424,      !- Hour 3
    0.0235458911419424,      !- Hour 4
    0.04715848452508,        !- Hour 5
    0.0707043756670224,      !- Hour 6
    0.165088046958378,       !- Hour 7
    0.283017609391676,       !- Hour 8
    0.306563500533618,       !- Hour 9
    0.320771077908218,       !- Hour 10
    0.283017609391676,       !- Hour 11
    0.330176093916756,       !- Hour 12
    0.377334578441836,       !- Hour 13
    0.306563500533618,       !- Hour 14
    0.292422625400213,       !- Hour 15
    0.377334578441836,       !- Hour 16
    0.613193703308431,       !- Hour 17
    1,                       !- Hour 18
    0.778348452508004,       !- Hour 19
    0.400947171824973,       !- Hour 20
    0.235859124866596,       !- Hour 21
    0.165088046958378,       !- Hour 22
    0.103721985058698,       !- Hour 23
    0.0707043756670224;      !- Hour 24

Schedule:Day:Hourly,
    DishwasherWeekday_flow_sch,  !- Name
    Fraction,                !- Schedule Type Limits Name
    0.0732349441038587,      !- Hour 1
    0.0325382618103136,      !- Hour 2
    0.0243798413270824,      !- Hour 3
    0.016269130905157,       !- Hour 4
    0.016269130905157,       !- Hour 5
    0.0488073927154706,      !- Hour 6
    0.0976624954922466,      !- Hour 7
    0.146517598269023,       !- Hour 8
    0.276813775694194,       !- Hour 9
    0.309352037504508,       !- Hour 10
    0.268655355210963,       !- Hour 11
    0.227958672917418,       !- Hour 12
    0.195372701045799,       !- Hour 13
    0.219800252434187,       !- Hour 14
    0.179103570140642,       !- Hour 15
    0.170945149657411,       !- Hour 16
    0.179103570140642,       !- Hour 17
    0.236069383339343,       !- Hour 18
    0.415220663541291,       !- Hour 19
    0.529199999999998,       !- Hour 20
    0.431489794446448,       !- Hour 21
    0.317510457987739,       !- Hour 22
    0.211641831950956,       !- Hour 23
    0.146517598269023;       !- Hour 24

Schedule:Day:Hourly,
    DishwasherWeekend_flow_sch,  !- Name
    Fraction,                !- Schedule Type Limits Name
    0.0784660115398484,      !- Hour 1
    0.0348624233681933,      !- Hour 2
    0.0261212585647313,      !- Hour 3
    0.0174312116840966,      !- Hour 4
    0.0174312116840966,      !- Hour 5
    0.0522936350522899,      !- Hour 6
    0.104638388027407,       !- Hour 7
    0.156983141002524,       !- Hour 8
    0.296586188243779,       !- Hour 9
    0.331448611611973,       !- Hour 10
    0.287845023440317,       !- Hour 11
    0.244241435268662,       !- Hour 12
    0.209327893977642,       !- Hour 13
    0.2355002704652,         !- Hour 14
    0.191896682293545,       !- Hour 15
    0.183155517490083,       !- Hour 16
    0.191896682293545,       !- Hour 17
    0.252931482149297,       !- Hour 18
    0.444879282365669,       !- Hour 19
    0.567,                   !- Hour 20
    0.462310494049765,       !- Hour 21
    0.340189776415435,       !- Hour 22
    0.226759105661738,       !- Hour 23
    0.156983141002524;       !- Hour 24

Schedule:Day:Hourly,
    DishwasherVacation_flow_sch,  !- Name
    Fraction,                !- Schedule Type Limits Name
    0,                       !- Hour 1
    0,                       !- Hour 2
    0,                       !- Hour 3
    0,                       !- Hour 4
    0,                       !- Hour 5
    0,                       !- Hour 6
    0,                       !- Hour 7
    0,                       !- Hour 8
    0,                       !- Hour 9
    0,                       !- Hour 10
    0,                       !- Hour 11
    0,                       !- Hour 12
    0,                       !- Hour 13
    0,                       !- Hour 14
    0,                       !- Hour 15
    0,                       !- Hour 16
    0,                       !- Hour 17
    0,                       !- Hour 18
    0,                       !- Hour 19
    0,                       !- Hour 20
    0,                       !- Hour 21
    0,                       !- Hour 22
    0,                       !- Hour 23
    0;                       !- Hour 24

Schedule:Day:Hourly,
    DishwasherWeekday_equip_sch,  !- Name
    Fraction,                !- Schedule Type Limits Name
    0.129162158913331,       !- Hour 1
    0.0573867051328282,      !- Hour 2
    0.0429979564851542,      !- Hour 3
    0.0286933525664145,      !- Hour 4
    0.0286933525664145,      !- Hour 5
    0.0860800576992427,      !- Hour 6
    0.172244260127419,       !- Hour 7
    0.258408462555596,       !- Hour 8
    0.488207717273711,       !- Hour 9
    0.545594422406539,       !- Hour 10
    0.473818968626037,       !- Hour 11
    0.402043514845535,       !- Hour 12
    0.344572664983772,       !- Hour 13
    0.387654766197861,       !- Hour 14
    0.315879312417358,       !- Hour 15
    0.301490563769684,       !- Hour 16
    0.315879312417358,       !- Hour 17
    0.416348118764274,       !- Hour 18
    0.732311575910566,       !- Hour 19
    0.93333333333333,        !- Hour 20
    0.761004928476981,       !- Hour 21
    0.559983171054213,       !- Hour 22
    0.373266017550187,       !- Hour 23
    0.258408462555596;       !- Hour 24

Schedule:Day:Hourly,
    DishwasherWeekend_equip_sch,  !- Name
    Fraction,                !- Schedule Type Limits Name
    0.13838802740714,        !- Hour 1
    0.0614857554994591,      !- Hour 2
    0.0460692390912369,      !- Hour 3
    0.0307428777497295,      !- Hour 4
    0.0307428777497295,      !- Hour 5
    0.0922286332491886,      !- Hour 6
    0.184547421565092,       !- Hour 7
    0.276866209880995,       !- Hour 8
    0.523079697078976,       !- Hour 9
    0.584565452578435,       !- Hour 10
    0.507663180670754,       !- Hour 11
    0.430760908763072,       !- Hour 12
    0.369184998196899,       !- Hour 13
    0.41534439235485,        !- Hour 14
    0.338442120447169,       !- Hour 15
    0.323025604038947,       !- Hour 16
    0.338442120447169,       !- Hour 17
    0.44608727010458,        !- Hour 18
    0.784619545618464,       !- Hour 19
    1,                       !- Hour 20
    0.815362423368193,       !- Hour 21
    0.599981968986657,       !- Hour 22
    0.399927875946628,       !- Hour 23
    0.276866209880995;       !- Hour 24

Schedule:Day:Hourly,
    DishwasherVacation_equip_sch,  !- Name
    Fraction,                !- Schedule Type Limits Name
    0,                       !- Hour 1
    0,                       !- Hour 2
    0,                       !- Hour 3
    0,                       !- Hour 4
    0,                       !- Hour 5
    0,                       !- Hour 6
    0,                       !- Hour 7
    0,                       !- Hour 8
    0,                       !- Hour 9
    0,                       !- Hour 10
    0,                       !- Hour 11
    0,                       !- Hour 12
    0,                       !- Hour 13
    0,                       !- Hour 14
    0,                       !- Hour 15
    0,                       !- Hour 16
    0,                       !- Hour 17
    0,                       !- Hour 18
    0,                       !- Hour 19
    0,                       !- Hour 20
    0,                       !- Hour 21
    0,                       !- Hour 22
    0,                       !- Hour 23
    0;                       !- Hour 24

Schedule:Day:Hourly,
    ClothesWasherWeekday_flow_sch,  !- Name
    Fraction,                !- Schedule Type Limits Name
    0.0503457143724021,      !- Hour 1
    0.0402657908310328,      !- Hour 2
    0.0201059437482934,      !- Hour 3
    0.0201059437482934,      !- Hour 4
    0.0402657908310328,      !- Hour 5
    0.0604256379137713,      !- Hour 6
    0.120851275827544,       !- Hour 7
    0.261916302072272,       !- Hour 8
    0.39290140477563,        !- Hour 9
    0.463460869565217,       !- Hour 10
    0.453380946023848,       !- Hour 11
    0.402981328317,          !- Hour 12
    0.362661634151521,       !- Hour 13
    0.322395843320489,       !- Hour 14
    0.28207614915501,        !- Hour 15
    0.261916302072272,       !- Hour 16
    0.271996225613641,       !- Hour 17
    0.261916302072272,       !- Hour 18
    0.261916302072272,       !- Hour 19
    0.261916302072272,       !- Hour 20
    0.261916302072272,       !- Hour 21
    0.251836378530902,       !- Hour 22
    0.171250893534391,       !- Hour 23
    0.0906654085378799;      !- Hour 24

Schedule:Day:Hourly,
    ClothesWasherWeekend_flow_sch,  !- Name
    Fraction,                !- Schedule Type Limits Name
    0.0615931612002792,      !- Hour 1
    0.0492613398464759,      !- Hour 2
    0.0245976971388695,      !- Hour 3
    0.0245976971388695,      !- Hour 4
    0.0492613398464759,      !- Hour 5
    0.0739249825540824,      !- Hour 6
    0.147849965108165,       !- Hour 7
    0.320429518492673,       !- Hour 8
    0.480677250523377,       !- Hour 9
    0.567,                   !- Hour 10
    0.554668178646197,       !- Hour 11
    0.493009071877181,       !- Hour 12
    0.443681786461968,       !- Hour 13
    0.394420446615492,       !- Hour 14
    0.345093161200279,       !- Hour 15
    0.320429518492673,       !- Hour 16
    0.332761339846476,       !- Hour 17
    0.320429518492673,       !- Hour 18
    0.320429518492673,       !- Hour 19
    0.320429518492673,       !- Hour 20
    0.320429518492673,       !- Hour 21
    0.308097697138869,       !- Hour 22
    0.209509071877181,       !- Hour 23
    0.110920446615492;       !- Hour 24

Schedule:Day:Hourly,
    ClothesWasherVacation_flow_sch,  !- Name
    Fraction,                !- Schedule Type Limits Name
    0,                       !- Hour 1
    0,                       !- Hour 2
    0,                       !- Hour 3
    0,                       !- Hour 4
    0,                       !- Hour 5
    0,                       !- Hour 6
    0,                       !- Hour 7
    0,                       !- Hour 8